/*--------------------------------*- C++ -*---------engine:jinja2-------------------------*\

| =========                 |                                                 |
| \\      /  F ield         | OpenFOAM: The Open Source CFD Toolbox           |
|  \\    /   O peration     | Version:  v2406                                 |

|   \\  /    A nd           | Website:  www.openfoam.com                      |
|    \\/     M anipulation  |                                                 |
\*---------------------------------------------------------------------------*/
FoamFile
{
    version     2.0;
    format      ascii;
    class       dictionary;
    object      functions;
}
// * * * * * * * * * * * * * * * * * * * * * * * * * * * * * * * * * * * * * //

    // y+ calculation
    yPlus
    {
        // Mandatory entries
        type            yPlus;
        libs            ("libfieldFunctionObjects.so");

        // Optional (inherited) entries
        writePrecision  10;
        writeToFile     true;
        useUserTime     true;
        region          region0;
        enabled         true;
        log             true;
        timeStart       0;
        executeControl  timeStep;
        executeInterval 1;
        writeControl    writeTime;
        writeInterval   -1;
    }
