/*-----------------------*- C++ -*-------engine:jinja2-----------------------*\
| =========                 |                                                 |
| \\      /  F ield         | OpenFOAM: The Open Source CFD Toolbox           |
|  \\    /   O peration     | Version:  v2406                                 |
|   \\  /    A nd           | Website:  www.openfoam.com                      |
|    \\/     M anipulation  |                                                 |
\*---------------------------------------------------------------------------*/
FoamFile
{
    version     2.0;
    format      ascii;
    class       dictionary;
    object      functions;
}
// * * * * * * * * * * * * * * * * * * * * * * * * * * * * * * * * * * * * * //

// Sampling points
     samplingUPoints
     {
         type                  probes;
         libs      ("libsampling.so");
         writeControl       timeStep;
         writeInterval          1;       // Adjust the interval as needed
         fields              (U);        // Field(s) you want to sample
         probeLocations
         (
<<<<<<< HEAD
             (2.61795 1.0 1.4959965021)
             // Add more points as needed
=======

            (40.0 1.0 1.4959965021) // Center of the domain

            
             (40.0 1.0 1.4959965021) // Center of the domain
             (8.0 1.0 1.4959965021) // 10% of L
             (24.0 1.0 1.4959965021) // 30% of L
             (40.0 1.0 1.4959965021) // 50% of L
             (56.0 1.0 1.4959965021) // 70% of L
             (72.0 1.0 1.4959965021) // 90% of L
             (80 1.0 1.4959965021) // End of the domain
             (40.0 0 1.4959965021) // Bottom of the domain
            

>>>>>>> 156e6add5d5146c8352bfc17e16a1abd1f17a87a
         );
     }