/*-----------------------------*- C++ -*-------engine:jinja2-----------------*\

| =========                 |                                                 |
| \\      /  F ield         | OpenFOAM: The Open Source CFD Toolbox           |
|  \\    /   O peration     | Version:  v2406                                 |
|   \\  /    A nd           | Website:  www.openfoam.com                      |
|    \\/     M anipulation  |                                                 |
\*---------------------------------------------------------------------------*/
FoamFile
{
    version     2.0;
    format      ascii;
    class       pointVectorField;
    object      pointDisplacement;
}
// * * * * * * * * * * * * * * * * * * * * * * * * * * * * * * * * * * * * * //

dimensions     [0 1 0 0 0 0 0];

internalField  uniform (0 0 0);

boundaryField
{
  bottom
  {

    

    type             codedFixedValue;
    value            uniform (0 0 0);

    name  movingLowerWallPoints;

    codeOptions
    #{
        -I$(LIB_SRC)/finiteVolume/lnInclude \
        -I$(LIB_SRC)/meshTools/lnInclude
    #};

    codeLibs
    #{
        -lmeshTools \
        -lfiniteVolume
    #};


    codeInclude
    #{
        #include "fvCFD.H"
        #include "pointFields.H"
        #include "primitivePatchInterpolation.H"
        #include <cmath>
        #include <iostream>
        #include <vector>
    #};


    code
    #{
        // Creating patch and field data
        const fvPatch& boundaryPatch = patch();
        const vectorField& Cf = boundaryPatch.Cf();
        vectorField& field = *this;

        // Getting current time
        double t = this->db().time().value();


        // Set variables
        const scalar A = 0.5;
        const scalar k = 2 * 3.141592 / 80;
        const scalar f = 0.2817573932125998;
        const scalar ramp = min(t / 15.0, 1.0);
        const scalarField& X = Cf.component(vector::X);


        // Loop over the faces of the patch
        forAll(Cf, faceI)
        { 
            field[faceI] = vector(0, A * sin(k * X[faceI] + f * t), 0);
        }
    #};

    


  }
  
  top
  {
      type        fixedValue;
      value       uniform (0 0 0);
  }
  

  

        
            "(inlet|outlet)"
            {
                type            fixedValue;
                value           uniform (0 0 0);
            }
            "(left|right)"
            {
                type        cyclicAMI;
            }
        



  
  
}
// ************************************************************************* //